
---------- Begin Simulation Statistics ----------
sim_seconds                                  0.542913                       # Number of seconds simulated
sim_ticks                                542913440000                       # Number of ticks simulated
final_tick                               542913440000                       # Number of ticks from beginning of simulation (restored from checkpoints and never reset)
sim_freq                                 1000000000000                       # Frequency of simulated ticks
host_inst_rate                                 952274                       # Simulator instruction rate (inst/s)
host_op_rate                                  1567938                       # Simulator op (including micro ops) rate (op/s)
host_tick_rate                            11594656794                       # Simulator tick rate (ticks/s)
host_mem_usage                                 662192                       # Number of bytes of host memory used
host_seconds                                    46.82                       # Real time elapsed on the host
sim_insts                                    44589714                       # Number of instructions simulated
sim_ops                                      73417832                       # Number of ops (including micro ops) simulated
system.voltage_domain.voltage                       1                       # Voltage in Volts
system.clk_domain.clock                          1000                       # Clock period in ticks
system.mem_ctrls.pwrStateResidencyTicks::UNDEFINED 542913440000                       # Cumulative time (in ticks) in various power states
system.mem_ctrls.bytes_read::cpu.inst           22784                       # Number of bytes read from this memory
system.mem_ctrls.bytes_read::cpu.data          452544                       # Number of bytes read from this memory
system.mem_ctrls.bytes_read::total             475328                       # Number of bytes read from this memory
system.mem_ctrls.bytes_inst_read::cpu.inst        22784                       # Number of instructions bytes read from this memory
system.mem_ctrls.bytes_inst_read::total         22784                       # Number of instructions bytes read from this memory
system.mem_ctrls.bytes_written::writebacks     80753664                       # Number of bytes written to this memory
system.mem_ctrls.bytes_written::total        80753664                       # Number of bytes written to this memory
system.mem_ctrls.num_reads::cpu.inst              356                       # Number of read requests responded to by this memory
system.mem_ctrls.num_reads::cpu.data             7071                       # Number of read requests responded to by this memory
system.mem_ctrls.num_reads::total                7427                       # Number of read requests responded to by this memory
system.mem_ctrls.num_writes::writebacks       1261776                       # Number of write requests responded to by this memory
system.mem_ctrls.num_writes::total            1261776                       # Number of write requests responded to by this memory
system.mem_ctrls.bw_read::cpu.inst              41966                       # Total read bandwidth from this memory (bytes/s)
system.mem_ctrls.bw_read::cpu.data             833547                       # Total read bandwidth from this memory (bytes/s)
system.mem_ctrls.bw_read::total                875513                       # Total read bandwidth from this memory (bytes/s)
system.mem_ctrls.bw_inst_read::cpu.inst         41966                       # Instruction read bandwidth from this memory (bytes/s)
system.mem_ctrls.bw_inst_read::total            41966                       # Instruction read bandwidth from this memory (bytes/s)
system.mem_ctrls.bw_write::writebacks       148741324                       # Write bandwidth from this memory (bytes/s)
system.mem_ctrls.bw_write::total            148741324                       # Write bandwidth from this memory (bytes/s)
system.mem_ctrls.bw_total::writebacks       148741324                       # Total bandwidth to/from this memory (bytes/s)
system.mem_ctrls.bw_total::cpu.inst             41966                       # Total bandwidth to/from this memory (bytes/s)
system.mem_ctrls.bw_total::cpu.data            833547                       # Total bandwidth to/from this memory (bytes/s)
system.mem_ctrls.bw_total::total            149616838                       # Total bandwidth to/from this memory (bytes/s)
system.pwrStateResidencyTicks::UNDEFINED 542913440000                       # Cumulative time (in ticks) in various power states
system.cpu_voltage_domain.voltage                   1                       # Voltage in Volts
system.cpu_clk_domain.clock                       500                       # Clock period in ticks
system.cpu.dtb.walker.pwrStateResidencyTicks::UNDEFINED 542913440000                       # Cumulative time (in ticks) in various power states
system.cpu.dtb.rdAccesses                    20877741                       # TLB accesses on read requests
system.cpu.dtb.wrAccesses                     5816541                       # TLB accesses on write requests
system.cpu.dtb.rdMisses                           166                       # TLB misses on read requests
system.cpu.dtb.wrMisses                           106                       # TLB misses on write requests
system.cpu.apic_clk_domain.clock                 8000                       # Clock period in ticks
system.cpu.interrupts.pwrStateResidencyTicks::UNDEFINED 542913440000                       # Cumulative time (in ticks) in various power states
system.cpu.itb.walker.pwrStateResidencyTicks::UNDEFINED 542913440000                       # Cumulative time (in ticks) in various power states
system.cpu.itb.rdAccesses                           0                       # TLB accesses on read requests
system.cpu.itb.wrAccesses                    59916907                       # TLB accesses on write requests
system.cpu.itb.rdMisses                             0                       # TLB misses on read requests
system.cpu.itb.wrMisses                            36                       # TLB misses on write requests
system.cpu.workload.numSyscalls                     9                       # Number of system calls
system.cpu.pwrStateResidencyTicks::ON    542913440000                       # Cumulative time (in ticks) in various power states
system.cpu.numCycles                       1085826880                       # number of cpu cycles simulated
system.cpu.numWorkItemsStarted                      0                       # number of work items this cpu started
system.cpu.numWorkItemsCompleted                    0                       # number of work items this cpu completed
system.cpu.committedInsts                    44589714                       # Number of instructions committed
system.cpu.committedOps                      73417832                       # Number of ops (including micro ops) committed
system.cpu.num_int_alu_accesses              72895910                       # Number of integer alu accesses
system.cpu.num_fp_alu_accesses                   1959                       # Number of float alu accesses
system.cpu.num_vec_alu_accesses                     0                       # Number of vector alu accesses
system.cpu.num_func_calls                      944900                       # number of times a function call or return occured
system.cpu.num_conditional_control_insts      4232451                       # number of instructions that are conditional controls
system.cpu.num_int_insts                     72895910                       # number of integer instructions
system.cpu.num_fp_insts                          1959                       # number of float instructions
system.cpu.num_vec_insts                            0                       # number of vector instructions
system.cpu.num_int_register_reads           163691543                       # number of times the integer registers were read
system.cpu.num_int_register_writes           63686385                       # number of times the integer registers were written
system.cpu.num_fp_register_reads                 3779                       # number of times the floating registers were read
system.cpu.num_fp_register_writes                1484                       # number of times the floating registers were written
system.cpu.num_vec_register_reads                   0                       # number of times the vector registers were read
system.cpu.num_vec_register_writes                  0                       # number of times the vector registers were written
system.cpu.num_cc_register_reads             27636559                       # number of times the CC registers were read
system.cpu.num_cc_register_writes            24933078                       # number of times the CC registers were written
system.cpu.num_mem_refs                      26694277                       # number of memory refs
system.cpu.num_load_insts                    20877737                       # Number of load instructions
system.cpu.num_store_insts                    5816540                       # Number of store instructions
system.cpu.num_idle_cycles                          0                       # Number of idle cycles
system.cpu.num_busy_cycles                 1085826880                       # Number of busy cycles
system.cpu.not_idle_fraction                        1                       # Percentage of non-idle cycles
system.cpu.idle_fraction                            0                       # Percentage of idle cycles
system.cpu.Branches                           5574735                       # Number of branches fetched
system.cpu.op_class::No_OpClass                175844      0.24%      0.24% # Class of executed instruction
system.cpu.op_class::IntAlu                  45543753     62.03%     62.27% # Class of executed instruction
system.cpu.op_class::IntMult                        4      0.00%     62.27% # Class of executed instruction
system.cpu.op_class::IntDiv                   1002994      1.37%     63.64% # Class of executed instruction
system.cpu.op_class::FloatAdd                      10      0.00%     63.64% # Class of executed instruction
system.cpu.op_class::FloatCmp                       0      0.00%     63.64% # Class of executed instruction
system.cpu.op_class::FloatCvt                       0      0.00%     63.64% # Class of executed instruction
system.cpu.op_class::FloatMult                      0      0.00%     63.64% # Class of executed instruction
system.cpu.op_class::FloatMultAcc                   0      0.00%     63.64% # Class of executed instruction
system.cpu.op_class::FloatDiv                       0      0.00%     63.64% # Class of executed instruction
system.cpu.op_class::FloatMisc                      0      0.00%     63.64% # Class of executed instruction
system.cpu.op_class::FloatSqrt                      0      0.00%     63.64% # Class of executed instruction
system.cpu.op_class::SimdAdd                      374      0.00%     63.64% # Class of executed instruction
system.cpu.op_class::SimdAddAcc                     0      0.00%     63.64% # Class of executed instruction
system.cpu.op_class::SimdAlu                       68      0.00%     63.64% # Class of executed instruction
system.cpu.op_class::SimdCmp                        0      0.00%     63.64% # Class of executed instruction
system.cpu.op_class::SimdCvt                      108      0.00%     63.64% # Class of executed instruction
system.cpu.op_class::SimdMisc                     214      0.00%     63.64% # Class of executed instruction
system.cpu.op_class::SimdMult                       0      0.00%     63.64% # Class of executed instruction
system.cpu.op_class::SimdMultAcc                    0      0.00%     63.64% # Class of executed instruction
system.cpu.op_class::SimdShift                    186      0.00%     63.64% # Class of executed instruction
system.cpu.op_class::SimdShiftAcc                   0      0.00%     63.64% # Class of executed instruction
system.cpu.op_class::SimdSqrt                       0      0.00%     63.64% # Class of executed instruction
system.cpu.op_class::SimdFloatAdd                   0      0.00%     63.64% # Class of executed instruction
system.cpu.op_class::SimdFloatAlu                   0      0.00%     63.64% # Class of executed instruction
system.cpu.op_class::SimdFloatCmp                   0      0.00%     63.64% # Class of executed instruction
system.cpu.op_class::SimdFloatCvt                   0      0.00%     63.64% # Class of executed instruction
system.cpu.op_class::SimdFloatDiv                   0      0.00%     63.64% # Class of executed instruction
system.cpu.op_class::SimdFloatMisc                  0      0.00%     63.64% # Class of executed instruction
system.cpu.op_class::SimdFloatMult                  0      0.00%     63.64% # Class of executed instruction
system.cpu.op_class::SimdFloatMultAcc               0      0.00%     63.64% # Class of executed instruction
system.cpu.op_class::SimdFloatSqrt                  0      0.00%     63.64% # Class of executed instruction
system.cpu.op_class::MemRead                 20877677     28.44%     92.08% # Class of executed instruction
system.cpu.op_class::MemWrite                 5816113      7.92%    100.00% # Class of executed instruction
system.cpu.op_class::FloatMemRead                  60      0.00%    100.00% # Class of executed instruction
system.cpu.op_class::FloatMemWrite                427      0.00%    100.00% # Class of executed instruction
system.cpu.op_class::IprAccess                      0      0.00%    100.00% # Class of executed instruction
system.cpu.op_class::InstPrefetch                   0      0.00%    100.00% # Class of executed instruction
system.cpu.op_class::total                   73417832                       # Class of executed instruction
system.cpu.dcache.tags.pwrStateResidencyTicks::UNDEFINED 542913440000                       # Cumulative time (in ticks) in various power states
system.cpu.dcache.tags.tagsinuse           510.368592                       # Cycle average of tags in use
system.cpu.dcache.tags.total_refs            26694282                       # Total number of references to valid blocks.
system.cpu.dcache.tags.sampled_refs             45427                       # Sample count of references to valid blocks.
system.cpu.dcache.tags.avg_refs            587.630308                       # Average number of references to valid blocks.
system.cpu.dcache.tags.warmup_cycle            765000                       # Cycle when the warmup percentage was hit.
system.cpu.dcache.tags.occ_blocks::cpu.data   510.368592                       # Average occupied blocks per requestor
system.cpu.dcache.tags.occ_percent::cpu.data     0.996814                       # Average percentage of cache occupancy
system.cpu.dcache.tags.occ_percent::total     0.996814                       # Average percentage of cache occupancy
system.cpu.dcache.tags.occ_task_id_blocks::1024          512                       # Occupied blocks per task id
system.cpu.dcache.tags.age_task_id_blocks_1024::0           11                       # Occupied blocks per task id
system.cpu.dcache.tags.age_task_id_blocks_1024::1           16                       # Occupied blocks per task id
system.cpu.dcache.tags.age_task_id_blocks_1024::3          153                       # Occupied blocks per task id
system.cpu.dcache.tags.age_task_id_blocks_1024::4          332                       # Occupied blocks per task id
system.cpu.dcache.tags.occ_task_id_percent::1024            1                       # Percentage of cache occupancy per task id
system.cpu.dcache.tags.tag_accesses          53433991                       # Number of tag accesses
system.cpu.dcache.tags.data_accesses         53433991                       # Number of data accesses
system.cpu.dcache.pwrStateResidencyTicks::UNDEFINED 542913440000                       # Cumulative time (in ticks) in various power states
system.cpu.dcache.ReadReq_hits::cpu.data     20839012                       # number of ReadReq hits
system.cpu.dcache.ReadReq_hits::total        20839012                       # number of ReadReq hits
system.cpu.dcache.WriteReq_hits::cpu.data       804255                       # number of WriteReq hits
system.cpu.dcache.WriteReq_hits::total         804255                       # number of WriteReq hits
system.cpu.dcache.demand_hits::cpu.data      21643267                       # number of demand (read+write) hits
system.cpu.dcache.demand_hits::total         21643267                       # number of demand (read+write) hits
system.cpu.dcache.overall_hits::cpu.data     21643267                       # number of overall hits
system.cpu.dcache.overall_hits::total        21643267                       # number of overall hits
system.cpu.dcache.ReadReq_misses::cpu.data        38729                       # number of ReadReq misses
system.cpu.dcache.ReadReq_misses::total         38729                       # number of ReadReq misses
system.cpu.dcache.WriteReq_misses::cpu.data      5012286                       # number of WriteReq misses
system.cpu.dcache.WriteReq_misses::total      5012286                       # number of WriteReq misses
system.cpu.dcache.demand_misses::cpu.data      5051015                       # number of demand (read+write) misses
system.cpu.dcache.demand_misses::total        5051015                       # number of demand (read+write) misses
system.cpu.dcache.overall_misses::cpu.data      5051015                       # number of overall misses
system.cpu.dcache.overall_misses::total       5051015                       # number of overall misses
system.cpu.dcache.ReadReq_miss_latency::cpu.data   1398446000                       # number of ReadReq miss cycles
system.cpu.dcache.ReadReq_miss_latency::total   1398446000                       # number of ReadReq miss cycles
system.cpu.dcache.WriteReq_miss_latency::cpu.data 459857703500                       # number of WriteReq miss cycles
system.cpu.dcache.WriteReq_miss_latency::total 459857703500                       # number of WriteReq miss cycles
system.cpu.dcache.demand_miss_latency::cpu.data 461256149500                       # number of demand (read+write) miss cycles
system.cpu.dcache.demand_miss_latency::total 461256149500                       # number of demand (read+write) miss cycles
system.cpu.dcache.overall_miss_latency::cpu.data 461256149500                       # number of overall miss cycles
system.cpu.dcache.overall_miss_latency::total 461256149500                       # number of overall miss cycles
system.cpu.dcache.ReadReq_accesses::cpu.data     20877741                       # number of ReadReq accesses(hits+misses)
system.cpu.dcache.ReadReq_accesses::total     20877741                       # number of ReadReq accesses(hits+misses)
system.cpu.dcache.WriteReq_accesses::cpu.data      5816541                       # number of WriteReq accesses(hits+misses)
system.cpu.dcache.WriteReq_accesses::total      5816541                       # number of WriteReq accesses(hits+misses)
system.cpu.dcache.demand_accesses::cpu.data     26694282                       # number of demand (read+write) accesses
system.cpu.dcache.demand_accesses::total     26694282                       # number of demand (read+write) accesses
system.cpu.dcache.overall_accesses::cpu.data     26694282                       # number of overall (read+write) accesses
system.cpu.dcache.overall_accesses::total     26694282                       # number of overall (read+write) accesses
system.cpu.dcache.ReadReq_miss_rate::cpu.data     0.001855                       # miss rate for ReadReq accesses
system.cpu.dcache.ReadReq_miss_rate::total     0.001855                       # miss rate for ReadReq accesses
system.cpu.dcache.WriteReq_miss_rate::cpu.data     0.861730                       # miss rate for WriteReq accesses
system.cpu.dcache.WriteReq_miss_rate::total     0.861730                       # miss rate for WriteReq accesses
system.cpu.dcache.demand_miss_rate::cpu.data     0.189217                       # miss rate for demand accesses
system.cpu.dcache.demand_miss_rate::total     0.189217                       # miss rate for demand accesses
system.cpu.dcache.overall_miss_rate::cpu.data     0.189217                       # miss rate for overall accesses
system.cpu.dcache.overall_miss_rate::total     0.189217                       # miss rate for overall accesses
system.cpu.dcache.ReadReq_avg_miss_latency::cpu.data 36108.497508                       # average ReadReq miss latency
system.cpu.dcache.ReadReq_avg_miss_latency::total 36108.497508                       # average ReadReq miss latency
system.cpu.dcache.WriteReq_avg_miss_latency::cpu.data 91746.102178                       # average WriteReq miss latency
system.cpu.dcache.WriteReq_avg_miss_latency::total 91746.102178                       # average WriteReq miss latency
system.cpu.dcache.demand_avg_miss_latency::cpu.data 91319.497071                       # average overall miss latency
system.cpu.dcache.demand_avg_miss_latency::total 91319.497071                       # average overall miss latency
system.cpu.dcache.overall_avg_miss_latency::cpu.data 91319.497071                       # average overall miss latency
system.cpu.dcache.overall_avg_miss_latency::total 91319.497071                       # average overall miss latency
system.cpu.dcache.blocked_cycles::no_mshrs            0                       # number of cycles access was blocked
system.cpu.dcache.blocked_cycles::no_targets            0                       # number of cycles access was blocked
system.cpu.dcache.blocked::no_mshrs                 0                       # number of cycles access was blocked
system.cpu.dcache.blocked::no_targets               0                       # number of cycles access was blocked
system.cpu.dcache.avg_blocked_cycles::no_mshrs          nan                       # average number of cycles each access was blocked
system.cpu.dcache.avg_blocked_cycles::no_targets          nan                       # average number of cycles each access was blocked
system.cpu.dcache.writebacks::writebacks        11169                       # number of writebacks
system.cpu.dcache.writebacks::total             11169                       # number of writebacks
system.cpu.dcache.ReadReq_mshr_misses::cpu.data        38729                       # number of ReadReq MSHR misses
system.cpu.dcache.ReadReq_mshr_misses::total        38729                       # number of ReadReq MSHR misses
system.cpu.dcache.WriteReq_mshr_misses::cpu.data      5012286                       # number of WriteReq MSHR misses
system.cpu.dcache.WriteReq_mshr_misses::total      5012286                       # number of WriteReq MSHR misses
system.cpu.dcache.demand_mshr_misses::cpu.data      5051015                       # number of demand (read+write) MSHR misses
system.cpu.dcache.demand_mshr_misses::total      5051015                       # number of demand (read+write) MSHR misses
system.cpu.dcache.overall_mshr_misses::cpu.data      5051015                       # number of overall MSHR misses
system.cpu.dcache.overall_mshr_misses::total      5051015                       # number of overall MSHR misses
system.cpu.dcache.ReadReq_mshr_miss_latency::cpu.data   1359717000                       # number of ReadReq MSHR miss cycles
system.cpu.dcache.ReadReq_mshr_miss_latency::total   1359717000                       # number of ReadReq MSHR miss cycles
system.cpu.dcache.WriteReq_mshr_miss_latency::cpu.data 454845417500                       # number of WriteReq MSHR miss cycles
system.cpu.dcache.WriteReq_mshr_miss_latency::total 454845417500                       # number of WriteReq MSHR miss cycles
system.cpu.dcache.demand_mshr_miss_latency::cpu.data 456205134500                       # number of demand (read+write) MSHR miss cycles
system.cpu.dcache.demand_mshr_miss_latency::total 456205134500                       # number of demand (read+write) MSHR miss cycles
system.cpu.dcache.overall_mshr_miss_latency::cpu.data 456205134500                       # number of overall MSHR miss cycles
system.cpu.dcache.overall_mshr_miss_latency::total 456205134500                       # number of overall MSHR miss cycles
system.cpu.dcache.ReadReq_mshr_miss_rate::cpu.data     0.001855                       # mshr miss rate for ReadReq accesses
system.cpu.dcache.ReadReq_mshr_miss_rate::total     0.001855                       # mshr miss rate for ReadReq accesses
system.cpu.dcache.WriteReq_mshr_miss_rate::cpu.data     0.861730                       # mshr miss rate for WriteReq accesses
system.cpu.dcache.WriteReq_mshr_miss_rate::total     0.861730                       # mshr miss rate for WriteReq accesses
system.cpu.dcache.demand_mshr_miss_rate::cpu.data     0.189217                       # mshr miss rate for demand accesses
system.cpu.dcache.demand_mshr_miss_rate::total     0.189217                       # mshr miss rate for demand accesses
system.cpu.dcache.overall_mshr_miss_rate::cpu.data     0.189217                       # mshr miss rate for overall accesses
system.cpu.dcache.overall_mshr_miss_rate::total     0.189217                       # mshr miss rate for overall accesses
system.cpu.dcache.ReadReq_avg_mshr_miss_latency::cpu.data 35108.497508                       # average ReadReq mshr miss latency
system.cpu.dcache.ReadReq_avg_mshr_miss_latency::total 35108.497508                       # average ReadReq mshr miss latency
system.cpu.dcache.WriteReq_avg_mshr_miss_latency::cpu.data 90746.102178                       # average WriteReq mshr miss latency
system.cpu.dcache.WriteReq_avg_mshr_miss_latency::total 90746.102178                       # average WriteReq mshr miss latency
system.cpu.dcache.demand_avg_mshr_miss_latency::cpu.data 90319.497071                       # average overall mshr miss latency
system.cpu.dcache.demand_avg_mshr_miss_latency::total 90319.497071                       # average overall mshr miss latency
system.cpu.dcache.overall_avg_mshr_miss_latency::cpu.data 90319.497071                       # average overall mshr miss latency
system.cpu.dcache.overall_avg_mshr_miss_latency::total 90319.497071                       # average overall mshr miss latency
system.cpu.dcache.replacements                  44915                       # number of replacements
system.cpu.dtb_walker_cache.tags.pwrStateResidencyTicks::UNDEFINED 542913440000                       # Cumulative time (in ticks) in various power states
system.cpu.dtb_walker_cache.tags.tagsinuse            0                       # Cycle average of tags in use
system.cpu.dtb_walker_cache.tags.total_refs            0                       # Total number of references to valid blocks.
system.cpu.dtb_walker_cache.tags.sampled_refs            0                       # Sample count of references to valid blocks.
system.cpu.dtb_walker_cache.tags.avg_refs          nan                       # Average number of references to valid blocks.
system.cpu.dtb_walker_cache.tags.warmup_cycle            0                       # Cycle when the warmup percentage was hit.
system.cpu.dtb_walker_cache.tags.tag_accesses            0                       # Number of tag accesses
system.cpu.dtb_walker_cache.tags.data_accesses            0                       # Number of data accesses
system.cpu.dtb_walker_cache.pwrStateResidencyTicks::UNDEFINED 542913440000                       # Cumulative time (in ticks) in various power states
system.cpu.dtb_walker_cache.blocked_cycles::no_mshrs            0                       # number of cycles access was blocked
system.cpu.dtb_walker_cache.blocked_cycles::no_targets            0                       # number of cycles access was blocked
system.cpu.dtb_walker_cache.blocked::no_mshrs            0                       # number of cycles access was blocked
system.cpu.dtb_walker_cache.blocked::no_targets            0                       # number of cycles access was blocked
system.cpu.dtb_walker_cache.avg_blocked_cycles::no_mshrs          nan                       # average number of cycles each access was blocked
system.cpu.dtb_walker_cache.avg_blocked_cycles::no_targets          nan                       # average number of cycles each access was blocked
system.cpu.dtb_walker_cache.replacements            0                       # number of replacements
system.cpu.icache.tags.pwrStateResidencyTicks::UNDEFINED 542913440000                       # Cumulative time (in ticks) in various power states
system.cpu.icache.tags.tagsinuse           281.431456                       # Cycle average of tags in use
system.cpu.icache.tags.total_refs            59916907                       # Total number of references to valid blocks.
system.cpu.icache.tags.sampled_refs               356                       # Sample count of references to valid blocks.
system.cpu.icache.tags.avg_refs          168305.918539                       # Average number of references to valid blocks.
system.cpu.icache.tags.warmup_cycle            445000                       # Cycle when the warmup percentage was hit.
system.cpu.icache.tags.occ_blocks::cpu.inst   281.431456                       # Average occupied blocks per requestor
system.cpu.icache.tags.occ_percent::cpu.inst     0.549671                       # Average percentage of cache occupancy
system.cpu.icache.tags.occ_percent::total     0.549671                       # Average percentage of cache occupancy
system.cpu.icache.tags.occ_task_id_blocks::1024          310                       # Occupied blocks per task id
system.cpu.icache.tags.age_task_id_blocks_1024::0           18                       # Occupied blocks per task id
system.cpu.icache.tags.age_task_id_blocks_1024::1           20                       # Occupied blocks per task id
system.cpu.icache.tags.age_task_id_blocks_1024::4          272                       # Occupied blocks per task id
system.cpu.icache.tags.occ_task_id_percent::1024     0.605469                       # Percentage of cache occupancy per task id
system.cpu.icache.tags.tag_accesses         119834170                       # Number of tag accesses
system.cpu.icache.tags.data_accesses        119834170                       # Number of data accesses
system.cpu.icache.pwrStateResidencyTicks::UNDEFINED 542913440000                       # Cumulative time (in ticks) in various power states
system.cpu.icache.ReadReq_hits::cpu.inst     59916551                       # number of ReadReq hits
system.cpu.icache.ReadReq_hits::total        59916551                       # number of ReadReq hits
system.cpu.icache.demand_hits::cpu.inst      59916551                       # number of demand (read+write) hits
system.cpu.icache.demand_hits::total         59916551                       # number of demand (read+write) hits
system.cpu.icache.overall_hits::cpu.inst     59916551                       # number of overall hits
system.cpu.icache.overall_hits::total        59916551                       # number of overall hits
system.cpu.icache.ReadReq_misses::cpu.inst          356                       # number of ReadReq misses
system.cpu.icache.ReadReq_misses::total           356                       # number of ReadReq misses
system.cpu.icache.demand_misses::cpu.inst          356                       # number of demand (read+write) misses
system.cpu.icache.demand_misses::total            356                       # number of demand (read+write) misses
system.cpu.icache.overall_misses::cpu.inst          356                       # number of overall misses
system.cpu.icache.overall_misses::total           356                       # number of overall misses
system.cpu.icache.ReadReq_miss_latency::cpu.inst     97477000                       # number of ReadReq miss cycles
system.cpu.icache.ReadReq_miss_latency::total     97477000                       # number of ReadReq miss cycles
system.cpu.icache.demand_miss_latency::cpu.inst     97477000                       # number of demand (read+write) miss cycles
system.cpu.icache.demand_miss_latency::total     97477000                       # number of demand (read+write) miss cycles
system.cpu.icache.overall_miss_latency::cpu.inst     97477000                       # number of overall miss cycles
system.cpu.icache.overall_miss_latency::total     97477000                       # number of overall miss cycles
system.cpu.icache.ReadReq_accesses::cpu.inst     59916907                       # number of ReadReq accesses(hits+misses)
system.cpu.icache.ReadReq_accesses::total     59916907                       # number of ReadReq accesses(hits+misses)
system.cpu.icache.demand_accesses::cpu.inst     59916907                       # number of demand (read+write) accesses
system.cpu.icache.demand_accesses::total     59916907                       # number of demand (read+write) accesses
system.cpu.icache.overall_accesses::cpu.inst     59916907                       # number of overall (read+write) accesses
system.cpu.icache.overall_accesses::total     59916907                       # number of overall (read+write) accesses
system.cpu.icache.ReadReq_miss_rate::cpu.inst     0.000006                       # miss rate for ReadReq accesses
system.cpu.icache.ReadReq_miss_rate::total     0.000006                       # miss rate for ReadReq accesses
system.cpu.icache.demand_miss_rate::cpu.inst     0.000006                       # miss rate for demand accesses
system.cpu.icache.demand_miss_rate::total     0.000006                       # miss rate for demand accesses
system.cpu.icache.overall_miss_rate::cpu.inst     0.000006                       # miss rate for overall accesses
system.cpu.icache.overall_miss_rate::total     0.000006                       # miss rate for overall accesses
system.cpu.icache.ReadReq_avg_miss_latency::cpu.inst 273811.797753                       # average ReadReq miss latency
system.cpu.icache.ReadReq_avg_miss_latency::total 273811.797753                       # average ReadReq miss latency
system.cpu.icache.demand_avg_miss_latency::cpu.inst 273811.797753                       # average overall miss latency
system.cpu.icache.demand_avg_miss_latency::total 273811.797753                       # average overall miss latency
system.cpu.icache.overall_avg_miss_latency::cpu.inst 273811.797753                       # average overall miss latency
system.cpu.icache.overall_avg_miss_latency::total 273811.797753                       # average overall miss latency
system.cpu.icache.blocked_cycles::no_mshrs            0                       # number of cycles access was blocked
system.cpu.icache.blocked_cycles::no_targets            0                       # number of cycles access was blocked
system.cpu.icache.blocked::no_mshrs                 0                       # number of cycles access was blocked
system.cpu.icache.blocked::no_targets               0                       # number of cycles access was blocked
system.cpu.icache.avg_blocked_cycles::no_mshrs          nan                       # average number of cycles each access was blocked
system.cpu.icache.avg_blocked_cycles::no_targets          nan                       # average number of cycles each access was blocked
system.cpu.icache.writebacks::writebacks           46                       # number of writebacks
system.cpu.icache.writebacks::total                46                       # number of writebacks
system.cpu.icache.ReadReq_mshr_misses::cpu.inst          356                       # number of ReadReq MSHR misses
system.cpu.icache.ReadReq_mshr_misses::total          356                       # number of ReadReq MSHR misses
system.cpu.icache.demand_mshr_misses::cpu.inst          356                       # number of demand (read+write) MSHR misses
system.cpu.icache.demand_mshr_misses::total          356                       # number of demand (read+write) MSHR misses
system.cpu.icache.overall_mshr_misses::cpu.inst          356                       # number of overall MSHR misses
system.cpu.icache.overall_mshr_misses::total          356                       # number of overall MSHR misses
system.cpu.icache.ReadReq_mshr_miss_latency::cpu.inst     97121000                       # number of ReadReq MSHR miss cycles
system.cpu.icache.ReadReq_mshr_miss_latency::total     97121000                       # number of ReadReq MSHR miss cycles
system.cpu.icache.demand_mshr_miss_latency::cpu.inst     97121000                       # number of demand (read+write) MSHR miss cycles
system.cpu.icache.demand_mshr_miss_latency::total     97121000                       # number of demand (read+write) MSHR miss cycles
system.cpu.icache.overall_mshr_miss_latency::cpu.inst     97121000                       # number of overall MSHR miss cycles
system.cpu.icache.overall_mshr_miss_latency::total     97121000                       # number of overall MSHR miss cycles
system.cpu.icache.ReadReq_mshr_miss_rate::cpu.inst     0.000006                       # mshr miss rate for ReadReq accesses
system.cpu.icache.ReadReq_mshr_miss_rate::total     0.000006                       # mshr miss rate for ReadReq accesses
system.cpu.icache.demand_mshr_miss_rate::cpu.inst     0.000006                       # mshr miss rate for demand accesses
system.cpu.icache.demand_mshr_miss_rate::total     0.000006                       # mshr miss rate for demand accesses
system.cpu.icache.overall_mshr_miss_rate::cpu.inst     0.000006                       # mshr miss rate for overall accesses
system.cpu.icache.overall_mshr_miss_rate::total     0.000006                       # mshr miss rate for overall accesses
system.cpu.icache.ReadReq_avg_mshr_miss_latency::cpu.inst 272811.797753                       # average ReadReq mshr miss latency
system.cpu.icache.ReadReq_avg_mshr_miss_latency::total 272811.797753                       # average ReadReq mshr miss latency
system.cpu.icache.demand_avg_mshr_miss_latency::cpu.inst 272811.797753                       # average overall mshr miss latency
system.cpu.icache.demand_avg_mshr_miss_latency::total 272811.797753                       # average overall mshr miss latency
system.cpu.icache.overall_avg_mshr_miss_latency::cpu.inst 272811.797753                       # average overall mshr miss latency
system.cpu.icache.overall_avg_mshr_miss_latency::total 272811.797753                       # average overall mshr miss latency
system.cpu.icache.replacements                     46                       # number of replacements
system.cpu.itb_walker_cache.tags.pwrStateResidencyTicks::UNDEFINED 542913440000                       # Cumulative time (in ticks) in various power states
system.cpu.itb_walker_cache.tags.tagsinuse            0                       # Cycle average of tags in use
system.cpu.itb_walker_cache.tags.total_refs            0                       # Total number of references to valid blocks.
system.cpu.itb_walker_cache.tags.sampled_refs            0                       # Sample count of references to valid blocks.
system.cpu.itb_walker_cache.tags.avg_refs          nan                       # Average number of references to valid blocks.
system.cpu.itb_walker_cache.tags.warmup_cycle            0                       # Cycle when the warmup percentage was hit.
system.cpu.itb_walker_cache.tags.tag_accesses            0                       # Number of tag accesses
system.cpu.itb_walker_cache.tags.data_accesses            0                       # Number of data accesses
system.cpu.itb_walker_cache.pwrStateResidencyTicks::UNDEFINED 542913440000                       # Cumulative time (in ticks) in various power states
system.cpu.itb_walker_cache.blocked_cycles::no_mshrs            0                       # number of cycles access was blocked
system.cpu.itb_walker_cache.blocked_cycles::no_targets            0                       # number of cycles access was blocked
system.cpu.itb_walker_cache.blocked::no_mshrs            0                       # number of cycles access was blocked
system.cpu.itb_walker_cache.blocked::no_targets            0                       # number of cycles access was blocked
system.cpu.itb_walker_cache.avg_blocked_cycles::no_mshrs          nan                       # average number of cycles each access was blocked
system.cpu.itb_walker_cache.avg_blocked_cycles::no_targets          nan                       # average number of cycles each access was blocked
system.cpu.itb_walker_cache.replacements            0                       # number of replacements
system.l2.tags.pwrStateResidencyTicks::UNDEFINED 542913440000                       # Cumulative time (in ticks) in various power states
system.l2.tags.tagsinuse                  2020.793798                       # Cycle average of tags in use
system.l2.tags.total_refs                    10110530                       # Total number of references to valid blocks.
system.l2.tags.sampled_refs                     24179                       # Sample count of references to valid blocks.
system.l2.tags.avg_refs                    418.153356                       # Average number of references to valid blocks.
system.l2.tags.warmup_cycle                    434500                       # Cycle when the warmup percentage was hit.
system.l2.tags.occ_blocks::writebacks        0.489470                       # Average occupied blocks per requestor
system.l2.tags.occ_blocks::cpu.inst         10.780451                       # Average occupied blocks per requestor
system.l2.tags.occ_blocks::cpu.data       2009.523877                       # Average occupied blocks per requestor
system.l2.tags.occ_percent::writebacks       0.000239                       # Average percentage of cache occupancy
system.l2.tags.occ_percent::cpu.inst         0.005264                       # Average percentage of cache occupancy
system.l2.tags.occ_percent::cpu.data         0.981213                       # Average percentage of cache occupancy
system.l2.tags.occ_percent::total            0.986716                       # Average percentage of cache occupancy
system.l2.tags.occ_task_id_blocks::1024          2048                       # Occupied blocks per task id
system.l2.tags.age_task_id_blocks_1024::0           35                       # Occupied blocks per task id
system.l2.tags.age_task_id_blocks_1024::1           39                       # Occupied blocks per task id
system.l2.tags.age_task_id_blocks_1024::3           89                       # Occupied blocks per task id
system.l2.tags.age_task_id_blocks_1024::4         1885                       # Occupied blocks per task id
system.l2.tags.occ_task_id_percent::1024            1                       # Percentage of cache occupancy per task id
system.l2.tags.tag_accesses                  80908443                       # Number of tag accesses
system.l2.tags.data_accesses                 80908443                       # Number of data accesses
system.l2.pwrStateResidencyTicks::UNDEFINED 542913440000                       # Cumulative time (in ticks) in various power states
system.l2.WritebackDirty_hits::writebacks        11169                       # number of WritebackDirty hits
system.l2.WritebackDirty_hits::total            11169                       # number of WritebackDirty hits
system.l2.WritebackClean_hits::writebacks           46                       # number of WritebackClean hits
system.l2.WritebackClean_hits::total               46                       # number of WritebackClean hits
system.l2.WriteClean_hits::writebacks         5014201                       # number of WriteClean hits
system.l2.WriteClean_hits::total              5014201                       # number of WriteClean hits
system.l2.UpgradeReq_hits::cpu.data           2501693                       # number of UpgradeReq hits
system.l2.UpgradeReq_hits::total              2501693                       # number of UpgradeReq hits
system.l2.ReadExReq_hits::cpu.data                139                       # number of ReadExReq hits
system.l2.ReadExReq_hits::total                   139                       # number of ReadExReq hits
system.l2.ReadSharedReq_hits::cpu.data          21356                       # number of ReadSharedReq hits
system.l2.ReadSharedReq_hits::total             21356                       # number of ReadSharedReq hits
system.l2.demand_hits::cpu.data                 21495                       # number of demand (read+write) hits
system.l2.demand_hits::total                    21495                       # number of demand (read+write) hits
system.l2.overall_hits::cpu.data                21495                       # number of overall hits
system.l2.overall_hits::total                   21495                       # number of overall hits
system.l2.UpgradeReq_misses::cpu.data         2503895                       # number of UpgradeReq misses
system.l2.UpgradeReq_misses::total            2503895                       # number of UpgradeReq misses
system.l2.ReadExReq_misses::cpu.data             6559                       # number of ReadExReq misses
system.l2.ReadExReq_misses::total                6559                       # number of ReadExReq misses
system.l2.ReadCleanReq_misses::cpu.inst           356                       # number of ReadCleanReq misses
system.l2.ReadCleanReq_misses::total              356                       # number of ReadCleanReq misses
system.l2.ReadSharedReq_misses::cpu.data        17373                       # number of ReadSharedReq misses
system.l2.ReadSharedReq_misses::total           17373                       # number of ReadSharedReq misses
system.l2.demand_misses::cpu.inst                 356                       # number of demand (read+write) misses
system.l2.demand_misses::cpu.data               23932                       # number of demand (read+write) misses
system.l2.demand_misses::total                  24288                       # number of demand (read+write) misses
system.l2.overall_misses::cpu.inst                356                       # number of overall misses
system.l2.overall_misses::cpu.data              23932                       # number of overall misses
system.l2.overall_misses::total                 24288                       # number of overall misses
system.l2.UpgradeReq_miss_latency::cpu.data 417399799500                       # number of UpgradeReq miss cycles
system.l2.UpgradeReq_miss_latency::total 417399799500                       # number of UpgradeReq miss cycles
system.l2.ReadExReq_miss_latency::cpu.data   3514804000                       # number of ReadExReq miss cycles
system.l2.ReadExReq_miss_latency::total    3514804000                       # number of ReadExReq miss cycles
system.l2.ReadCleanReq_miss_latency::cpu.inst     96575000                       # number of ReadCleanReq miss cycles
system.l2.ReadCleanReq_miss_latency::total     96575000                       # number of ReadCleanReq miss cycles
system.l2.ReadSharedReq_miss_latency::cpu.data   1077385000                       # number of ReadSharedReq miss cycles
system.l2.ReadSharedReq_miss_latency::total   1077385000                       # number of ReadSharedReq miss cycles
system.l2.demand_miss_latency::cpu.inst      96575000                       # number of demand (read+write) miss cycles
system.l2.demand_miss_latency::cpu.data    4592189000                       # number of demand (read+write) miss cycles
system.l2.demand_miss_latency::total       4688764000                       # number of demand (read+write) miss cycles
system.l2.overall_miss_latency::cpu.inst     96575000                       # number of overall miss cycles
system.l2.overall_miss_latency::cpu.data   4592189000                       # number of overall miss cycles
system.l2.overall_miss_latency::total      4688764000                       # number of overall miss cycles
system.l2.WritebackDirty_accesses::writebacks        11169                       # number of WritebackDirty accesses(hits+misses)
system.l2.WritebackDirty_accesses::total        11169                       # number of WritebackDirty accesses(hits+misses)
system.l2.WritebackClean_accesses::writebacks           46                       # number of WritebackClean accesses(hits+misses)
system.l2.WritebackClean_accesses::total           46                       # number of WritebackClean accesses(hits+misses)
system.l2.WriteClean_accesses::writebacks      5014201                       # number of WriteClean accesses(hits+misses)
system.l2.WriteClean_accesses::total          5014201                       # number of WriteClean accesses(hits+misses)
system.l2.UpgradeReq_accesses::cpu.data       5005588                       # number of UpgradeReq accesses(hits+misses)
system.l2.UpgradeReq_accesses::total          5005588                       # number of UpgradeReq accesses(hits+misses)
system.l2.ReadExReq_accesses::cpu.data           6698                       # number of ReadExReq accesses(hits+misses)
system.l2.ReadExReq_accesses::total              6698                       # number of ReadExReq accesses(hits+misses)
system.l2.ReadCleanReq_accesses::cpu.inst          356                       # number of ReadCleanReq accesses(hits+misses)
system.l2.ReadCleanReq_accesses::total            356                       # number of ReadCleanReq accesses(hits+misses)
system.l2.ReadSharedReq_accesses::cpu.data        38729                       # number of ReadSharedReq accesses(hits+misses)
system.l2.ReadSharedReq_accesses::total         38729                       # number of ReadSharedReq accesses(hits+misses)
system.l2.demand_accesses::cpu.inst               356                       # number of demand (read+write) accesses
system.l2.demand_accesses::cpu.data             45427                       # number of demand (read+write) accesses
system.l2.demand_accesses::total                45783                       # number of demand (read+write) accesses
system.l2.overall_accesses::cpu.inst              356                       # number of overall (read+write) accesses
system.l2.overall_accesses::cpu.data            45427                       # number of overall (read+write) accesses
system.l2.overall_accesses::total               45783                       # number of overall (read+write) accesses
system.l2.UpgradeReq_miss_rate::cpu.data     0.500220                       # miss rate for UpgradeReq accesses
system.l2.UpgradeReq_miss_rate::total        0.500220                       # miss rate for UpgradeReq accesses
system.l2.ReadExReq_miss_rate::cpu.data      0.979248                       # miss rate for ReadExReq accesses
system.l2.ReadExReq_miss_rate::total         0.979248                       # miss rate for ReadExReq accesses
system.l2.ReadCleanReq_miss_rate::cpu.inst            1                       # miss rate for ReadCleanReq accesses
system.l2.ReadCleanReq_miss_rate::total             1                       # miss rate for ReadCleanReq accesses
system.l2.ReadSharedReq_miss_rate::cpu.data     0.448579                       # miss rate for ReadSharedReq accesses
system.l2.ReadSharedReq_miss_rate::total     0.448579                       # miss rate for ReadSharedReq accesses
system.l2.demand_miss_rate::cpu.inst                1                       # miss rate for demand accesses
system.l2.demand_miss_rate::cpu.data         0.526823                       # miss rate for demand accesses
system.l2.demand_miss_rate::total            0.530503                       # miss rate for demand accesses
system.l2.overall_miss_rate::cpu.inst               1                       # miss rate for overall accesses
system.l2.overall_miss_rate::cpu.data        0.526823                       # miss rate for overall accesses
system.l2.overall_miss_rate::total           0.530503                       # miss rate for overall accesses
system.l2.UpgradeReq_avg_miss_latency::cpu.data 166700.200887                       # average UpgradeReq miss latency
system.l2.UpgradeReq_avg_miss_latency::total 166700.200887                       # average UpgradeReq miss latency
system.l2.ReadExReq_avg_miss_latency::cpu.data 535874.980942                       # average ReadExReq miss latency
system.l2.ReadExReq_avg_miss_latency::total 535874.980942                       # average ReadExReq miss latency
system.l2.ReadCleanReq_avg_miss_latency::cpu.inst 271278.089888                       # average ReadCleanReq miss latency
system.l2.ReadCleanReq_avg_miss_latency::total 271278.089888                       # average ReadCleanReq miss latency
system.l2.ReadSharedReq_avg_miss_latency::cpu.data 62014.908191                       # average ReadSharedReq miss latency
system.l2.ReadSharedReq_avg_miss_latency::total 62014.908191                       # average ReadSharedReq miss latency
system.l2.demand_avg_miss_latency::cpu.inst 271278.089888                       # average overall miss latency
system.l2.demand_avg_miss_latency::cpu.data 191884.882166                       # average overall miss latency
system.l2.demand_avg_miss_latency::total 193048.583663                       # average overall miss latency
system.l2.overall_avg_miss_latency::cpu.inst 271278.089888                       # average overall miss latency
system.l2.overall_avg_miss_latency::cpu.data 191884.882166                       # average overall miss latency
system.l2.overall_avg_miss_latency::total 193048.583663                       # average overall miss latency
system.l2.blocked_cycles::no_mshrs                  0                       # number of cycles access was blocked
system.l2.blocked_cycles::no_targets                0                       # number of cycles access was blocked
system.l2.blocked::no_mshrs                         0                       # number of cycles access was blocked
system.l2.blocked::no_targets                       0                       # number of cycles access was blocked
system.l2.avg_blocked_cycles::no_mshrs            nan                       # average number of cycles each access was blocked
system.l2.avg_blocked_cycles::no_targets          nan                       # average number of cycles each access was blocked
system.l2.writebacks::writebacks                21744                       # number of writebacks
system.l2.writebacks::total                     21744                       # number of writebacks
system.l2.CleanEvict_mshr_misses::writebacks            2                       # number of CleanEvict MSHR misses
system.l2.CleanEvict_mshr_misses::total             2                       # number of CleanEvict MSHR misses
system.l2.UpgradeReq_mshr_misses::cpu.data      2503895                       # number of UpgradeReq MSHR misses
system.l2.UpgradeReq_mshr_misses::total       2503895                       # number of UpgradeReq MSHR misses
system.l2.ReadExReq_mshr_misses::cpu.data         6559                       # number of ReadExReq MSHR misses
system.l2.ReadExReq_mshr_misses::total           6559                       # number of ReadExReq MSHR misses
system.l2.ReadCleanReq_mshr_misses::cpu.inst          356                       # number of ReadCleanReq MSHR misses
system.l2.ReadCleanReq_mshr_misses::total          356                       # number of ReadCleanReq MSHR misses
system.l2.ReadSharedReq_mshr_misses::cpu.data        17373                       # number of ReadSharedReq MSHR misses
system.l2.ReadSharedReq_mshr_misses::total        17373                       # number of ReadSharedReq MSHR misses
system.l2.demand_mshr_misses::cpu.inst            356                       # number of demand (read+write) MSHR misses
system.l2.demand_mshr_misses::cpu.data          23932                       # number of demand (read+write) MSHR misses
system.l2.demand_mshr_misses::total             24288                       # number of demand (read+write) MSHR misses
system.l2.overall_mshr_misses::cpu.inst           356                       # number of overall MSHR misses
system.l2.overall_mshr_misses::cpu.data         23932                       # number of overall MSHR misses
system.l2.overall_mshr_misses::total            24288                       # number of overall MSHR misses
system.l2.UpgradeReq_mshr_miss_latency::cpu.data 392360887000                       # number of UpgradeReq MSHR miss cycles
system.l2.UpgradeReq_mshr_miss_latency::total 392360887000                       # number of UpgradeReq MSHR miss cycles
system.l2.ReadExReq_mshr_miss_latency::cpu.data   3449214000                       # number of ReadExReq MSHR miss cycles
system.l2.ReadExReq_mshr_miss_latency::total   3449214000                       # number of ReadExReq MSHR miss cycles
system.l2.ReadCleanReq_mshr_miss_latency::cpu.inst     93015000                       # number of ReadCleanReq MSHR miss cycles
system.l2.ReadCleanReq_mshr_miss_latency::total     93015000                       # number of ReadCleanReq MSHR miss cycles
system.l2.ReadSharedReq_mshr_miss_latency::cpu.data    903655000                       # number of ReadSharedReq MSHR miss cycles
system.l2.ReadSharedReq_mshr_miss_latency::total    903655000                       # number of ReadSharedReq MSHR miss cycles
system.l2.demand_mshr_miss_latency::cpu.inst     93015000                       # number of demand (read+write) MSHR miss cycles
system.l2.demand_mshr_miss_latency::cpu.data   4352869000                       # number of demand (read+write) MSHR miss cycles
system.l2.demand_mshr_miss_latency::total   4445884000                       # number of demand (read+write) MSHR miss cycles
system.l2.overall_mshr_miss_latency::cpu.inst     93015000                       # number of overall MSHR miss cycles
system.l2.overall_mshr_miss_latency::cpu.data   4352869000                       # number of overall MSHR miss cycles
system.l2.overall_mshr_miss_latency::total   4445884000                       # number of overall MSHR miss cycles
system.l2.CleanEvict_mshr_miss_rate::writebacks          inf                       # mshr miss rate for CleanEvict accesses
system.l2.CleanEvict_mshr_miss_rate::total          inf                       # mshr miss rate for CleanEvict accesses
system.l2.UpgradeReq_mshr_miss_rate::cpu.data     0.500220                       # mshr miss rate for UpgradeReq accesses
system.l2.UpgradeReq_mshr_miss_rate::total     0.500220                       # mshr miss rate for UpgradeReq accesses
system.l2.ReadExReq_mshr_miss_rate::cpu.data     0.979248                       # mshr miss rate for ReadExReq accesses
system.l2.ReadExReq_mshr_miss_rate::total     0.979248                       # mshr miss rate for ReadExReq accesses
system.l2.ReadCleanReq_mshr_miss_rate::cpu.inst            1                       # mshr miss rate for ReadCleanReq accesses
system.l2.ReadCleanReq_mshr_miss_rate::total            1                       # mshr miss rate for ReadCleanReq accesses
system.l2.ReadSharedReq_mshr_miss_rate::cpu.data     0.448579                       # mshr miss rate for ReadSharedReq accesses
system.l2.ReadSharedReq_mshr_miss_rate::total     0.448579                       # mshr miss rate for ReadSharedReq accesses
system.l2.demand_mshr_miss_rate::cpu.inst            1                       # mshr miss rate for demand accesses
system.l2.demand_mshr_miss_rate::cpu.data     0.526823                       # mshr miss rate for demand accesses
system.l2.demand_mshr_miss_rate::total       0.530503                       # mshr miss rate for demand accesses
system.l2.overall_mshr_miss_rate::cpu.inst            1                       # mshr miss rate for overall accesses
system.l2.overall_mshr_miss_rate::cpu.data     0.526823                       # mshr miss rate for overall accesses
system.l2.overall_mshr_miss_rate::total      0.530503                       # mshr miss rate for overall accesses
system.l2.UpgradeReq_avg_mshr_miss_latency::cpu.data 156700.215864                       # average UpgradeReq mshr miss latency
system.l2.UpgradeReq_avg_mshr_miss_latency::total 156700.215864                       # average UpgradeReq mshr miss latency
system.l2.ReadExReq_avg_mshr_miss_latency::cpu.data 525874.980942                       # average ReadExReq mshr miss latency
system.l2.ReadExReq_avg_mshr_miss_latency::total 525874.980942                       # average ReadExReq mshr miss latency
system.l2.ReadCleanReq_avg_mshr_miss_latency::cpu.inst 261278.089888                       # average ReadCleanReq mshr miss latency
system.l2.ReadCleanReq_avg_mshr_miss_latency::total 261278.089888                       # average ReadCleanReq mshr miss latency
system.l2.ReadSharedReq_avg_mshr_miss_latency::cpu.data 52014.908191                       # average ReadSharedReq mshr miss latency
system.l2.ReadSharedReq_avg_mshr_miss_latency::total 52014.908191                       # average ReadSharedReq mshr miss latency
system.l2.demand_avg_mshr_miss_latency::cpu.inst 261278.089888                       # average overall mshr miss latency
system.l2.demand_avg_mshr_miss_latency::cpu.data 181884.882166                       # average overall mshr miss latency
system.l2.demand_avg_mshr_miss_latency::total 183048.583663                       # average overall mshr miss latency
system.l2.overall_avg_mshr_miss_latency::cpu.inst 261278.089888                       # average overall mshr miss latency
system.l2.overall_avg_mshr_miss_latency::cpu.data 181884.882166                       # average overall mshr miss latency
system.l2.overall_avg_mshr_miss_latency::total 183048.583663                       # average overall mshr miss latency
system.l2.replacements                          22131                       # number of replacements
system.l3.tags.pwrStateResidencyTicks::UNDEFINED 542913440000                       # Cumulative time (in ticks) in various power states
system.l3.tags.tagsinuse                  6002.661946                       # Cycle average of tags in use
system.l3.tags.total_refs                     5064264                       # Total number of references to valid blocks.
system.l3.tags.sampled_refs                      8274                       # Sample count of references to valid blocks.
system.l3.tags.avg_refs                    612.069616                       # Average number of references to valid blocks.
system.l3.tags.warmup_cycle                    418000                       # Cycle when the warmup percentage was hit.
system.l3.tags.occ_blocks::writebacks      139.761674                       # Average occupied blocks per requestor
system.l3.tags.occ_blocks::cpu.inst        215.270497                       # Average occupied blocks per requestor
system.l3.tags.occ_blocks::cpu.data       5647.629775                       # Average occupied blocks per requestor
system.l3.tags.occ_percent::writebacks       0.017061                       # Average percentage of cache occupancy
system.l3.tags.occ_percent::cpu.inst         0.026278                       # Average percentage of cache occupancy
system.l3.tags.occ_percent::cpu.data         0.689408                       # Average percentage of cache occupancy
system.l3.tags.occ_percent::total            0.732747                       # Average percentage of cache occupancy
system.l3.tags.occ_task_id_blocks::1024          6414                       # Occupied blocks per task id
system.l3.tags.age_task_id_blocks_1024::0           29                       # Occupied blocks per task id
system.l3.tags.age_task_id_blocks_1024::1           34                       # Occupied blocks per task id
system.l3.tags.age_task_id_blocks_1024::3           53                       # Occupied blocks per task id
system.l3.tags.age_task_id_blocks_1024::4         6298                       # Occupied blocks per task id
system.l3.tags.occ_task_id_percent::1024     0.782959                       # Percentage of cache occupancy per task id
system.l3.tags.tag_accesses                  10136906                       # Number of tag accesses
system.l3.tags.data_accesses                 10136906                       # Number of data accesses
system.l3.pwrStateResidencyTicks::UNDEFINED 542913440000                       # Cumulative time (in ticks) in various power states
system.l3.WritebackDirty_hits::writebacks        21744                       # number of WritebackDirty hits
system.l3.WritebackDirty_hits::total            21744                       # number of WritebackDirty hits
system.l3.WriteClean_hits::writebacks         2514282                       # number of WriteClean hits
system.l3.WriteClean_hits::total              2514282                       # number of WriteClean hits
system.l3.UpgradeReq_hits::cpu.data           1250903                       # number of UpgradeReq hits
system.l3.UpgradeReq_hits::total              1250903                       # number of UpgradeReq hits
system.l3.ReadExReq_hits::cpu.data                 37                       # number of ReadExReq hits
system.l3.ReadExReq_hits::total                    37                       # number of ReadExReq hits
system.l3.ReadSharedReq_hits::cpu.data          16689                       # number of ReadSharedReq hits
system.l3.ReadSharedReq_hits::total             16689                       # number of ReadSharedReq hits
system.l3.demand_hits::cpu.data                 16726                       # number of demand (read+write) hits
system.l3.demand_hits::total                    16726                       # number of demand (read+write) hits
system.l3.overall_hits::cpu.data                16726                       # number of overall hits
system.l3.overall_hits::total                   16726                       # number of overall hits
system.l3.UpgradeReq_misses::cpu.data         1253112                       # number of UpgradeReq misses
system.l3.UpgradeReq_misses::total            1253112                       # number of UpgradeReq misses
system.l3.ReadExReq_misses::cpu.data             6402                       # number of ReadExReq misses
system.l3.ReadExReq_misses::total                6402                       # number of ReadExReq misses
system.l3.ReadSharedReq_misses::cpu.inst          356                       # number of ReadSharedReq misses
system.l3.ReadSharedReq_misses::cpu.data          684                       # number of ReadSharedReq misses
system.l3.ReadSharedReq_misses::total            1040                       # number of ReadSharedReq misses
system.l3.demand_misses::cpu.inst                 356                       # number of demand (read+write) misses
system.l3.demand_misses::cpu.data                7086                       # number of demand (read+write) misses
system.l3.demand_misses::total                   7442                       # number of demand (read+write) misses
system.l3.overall_misses::cpu.inst                356                       # number of overall misses
system.l3.overall_misses::cpu.data               7086                       # number of overall misses
system.l3.overall_misses::total                  7442                       # number of overall misses
system.l3.UpgradeReq_miss_latency::cpu.data 344178980500                       # number of UpgradeReq miss cycles
system.l3.UpgradeReq_miss_latency::total 344178980500                       # number of UpgradeReq miss cycles
system.l3.ReadExReq_miss_latency::cpu.data   3372868000                       # number of ReadExReq miss cycles
system.l3.ReadExReq_miss_latency::total    3372868000                       # number of ReadExReq miss cycles
system.l3.ReadSharedReq_miss_latency::cpu.inst     89099000                       # number of ReadSharedReq miss cycles
system.l3.ReadSharedReq_miss_latency::cpu.data    437183500                       # number of ReadSharedReq miss cycles
system.l3.ReadSharedReq_miss_latency::total    526282500                       # number of ReadSharedReq miss cycles
system.l3.demand_miss_latency::cpu.inst      89099000                       # number of demand (read+write) miss cycles
system.l3.demand_miss_latency::cpu.data    3810051500                       # number of demand (read+write) miss cycles
system.l3.demand_miss_latency::total       3899150500                       # number of demand (read+write) miss cycles
system.l3.overall_miss_latency::cpu.inst     89099000                       # number of overall miss cycles
system.l3.overall_miss_latency::cpu.data   3810051500                       # number of overall miss cycles
system.l3.overall_miss_latency::total      3899150500                       # number of overall miss cycles
system.l3.WritebackDirty_accesses::writebacks        21744                       # number of WritebackDirty accesses(hits+misses)
system.l3.WritebackDirty_accesses::total        21744                       # number of WritebackDirty accesses(hits+misses)
system.l3.WriteClean_accesses::writebacks      2514282                       # number of WriteClean accesses(hits+misses)
system.l3.WriteClean_accesses::total          2514282                       # number of WriteClean accesses(hits+misses)
system.l3.UpgradeReq_accesses::cpu.data       2504015                       # number of UpgradeReq accesses(hits+misses)
system.l3.UpgradeReq_accesses::total          2504015                       # number of UpgradeReq accesses(hits+misses)
system.l3.ReadExReq_accesses::cpu.data           6439                       # number of ReadExReq accesses(hits+misses)
system.l3.ReadExReq_accesses::total              6439                       # number of ReadExReq accesses(hits+misses)
system.l3.ReadSharedReq_accesses::cpu.inst          356                       # number of ReadSharedReq accesses(hits+misses)
system.l3.ReadSharedReq_accesses::cpu.data        17373                       # number of ReadSharedReq accesses(hits+misses)
system.l3.ReadSharedReq_accesses::total         17729                       # number of ReadSharedReq accesses(hits+misses)
system.l3.demand_accesses::cpu.inst               356                       # number of demand (read+write) accesses
system.l3.demand_accesses::cpu.data             23812                       # number of demand (read+write) accesses
system.l3.demand_accesses::total                24168                       # number of demand (read+write) accesses
system.l3.overall_accesses::cpu.inst              356                       # number of overall (read+write) accesses
system.l3.overall_accesses::cpu.data            23812                       # number of overall (read+write) accesses
system.l3.overall_accesses::total               24168                       # number of overall (read+write) accesses
system.l3.UpgradeReq_miss_rate::cpu.data     0.500441                       # miss rate for UpgradeReq accesses
system.l3.UpgradeReq_miss_rate::total        0.500441                       # miss rate for UpgradeReq accesses
system.l3.ReadExReq_miss_rate::cpu.data      0.994254                       # miss rate for ReadExReq accesses
system.l3.ReadExReq_miss_rate::total         0.994254                       # miss rate for ReadExReq accesses
system.l3.ReadSharedReq_miss_rate::cpu.inst            1                       # miss rate for ReadSharedReq accesses
system.l3.ReadSharedReq_miss_rate::cpu.data     0.039371                       # miss rate for ReadSharedReq accesses
system.l3.ReadSharedReq_miss_rate::total     0.058661                       # miss rate for ReadSharedReq accesses
system.l3.demand_miss_rate::cpu.inst                1                       # miss rate for demand accesses
system.l3.demand_miss_rate::cpu.data         0.297581                       # miss rate for demand accesses
system.l3.demand_miss_rate::total            0.307928                       # miss rate for demand accesses
system.l3.overall_miss_rate::cpu.inst               1                       # miss rate for overall accesses
system.l3.overall_miss_rate::cpu.data        0.297581                       # miss rate for overall accesses
system.l3.overall_miss_rate::total           0.307928                       # miss rate for overall accesses
system.l3.UpgradeReq_avg_miss_latency::cpu.data 274659.392377                       # average UpgradeReq miss latency
system.l3.UpgradeReq_avg_miss_latency::total 274659.392377                       # average UpgradeReq miss latency
system.l3.ReadExReq_avg_miss_latency::cpu.data 526845.985629                       # average ReadExReq miss latency
system.l3.ReadExReq_avg_miss_latency::total 526845.985629                       # average ReadExReq miss latency
system.l3.ReadSharedReq_avg_miss_latency::cpu.inst 250278.089888                       # average ReadSharedReq miss latency
system.l3.ReadSharedReq_avg_miss_latency::cpu.data 639157.163743                       # average ReadSharedReq miss latency
system.l3.ReadSharedReq_avg_miss_latency::total 506040.865385                       # average ReadSharedReq miss latency
system.l3.demand_avg_miss_latency::cpu.inst 250278.089888                       # average overall miss latency
system.l3.demand_avg_miss_latency::cpu.data 537687.200113                       # average overall miss latency
system.l3.demand_avg_miss_latency::total 523938.524590                       # average overall miss latency
system.l3.overall_avg_miss_latency::cpu.inst 250278.089888                       # average overall miss latency
system.l3.overall_avg_miss_latency::cpu.data 537687.200113                       # average overall miss latency
system.l3.overall_avg_miss_latency::total 523938.524590                       # average overall miss latency
system.l3.blocked_cycles::no_mshrs                  0                       # number of cycles access was blocked
system.l3.blocked_cycles::no_targets                0                       # number of cycles access was blocked
system.l3.blocked::no_mshrs                         0                       # number of cycles access was blocked
system.l3.blocked::no_targets                       0                       # number of cycles access was blocked
system.l3.avg_blocked_cycles::no_mshrs            nan                       # average number of cycles each access was blocked
system.l3.avg_blocked_cycles::no_targets          nan                       # average number of cycles each access was blocked
system.l3.writebacks::writebacks                 1256                       # number of writebacks
system.l3.writebacks::total                      1256                       # number of writebacks
system.l3.CleanEvict_mshr_misses::writebacks            5                       # number of CleanEvict MSHR misses
system.l3.CleanEvict_mshr_misses::total             5                       # number of CleanEvict MSHR misses
system.l3.UpgradeReq_mshr_misses::cpu.data      1253112                       # number of UpgradeReq MSHR misses
system.l3.UpgradeReq_mshr_misses::total       1253112                       # number of UpgradeReq MSHR misses
system.l3.ReadExReq_mshr_misses::cpu.data         6402                       # number of ReadExReq MSHR misses
system.l3.ReadExReq_mshr_misses::total           6402                       # number of ReadExReq MSHR misses
system.l3.ReadSharedReq_mshr_misses::cpu.inst          356                       # number of ReadSharedReq MSHR misses
system.l3.ReadSharedReq_mshr_misses::cpu.data          684                       # number of ReadSharedReq MSHR misses
system.l3.ReadSharedReq_mshr_misses::total         1040                       # number of ReadSharedReq MSHR misses
system.l3.demand_mshr_misses::cpu.inst            356                       # number of demand (read+write) MSHR misses
system.l3.demand_mshr_misses::cpu.data           7086                       # number of demand (read+write) MSHR misses
system.l3.demand_mshr_misses::total              7442                       # number of demand (read+write) MSHR misses
system.l3.overall_mshr_misses::cpu.inst           356                       # number of overall MSHR misses
system.l3.overall_mshr_misses::cpu.data          7086                       # number of overall MSHR misses
system.l3.overall_mshr_misses::total             7442                       # number of overall MSHR misses
system.l3.UpgradeReq_mshr_miss_latency::cpu.data 324131937000                       # number of UpgradeReq MSHR miss cycles
system.l3.UpgradeReq_mshr_miss_latency::total 324131937000                       # number of UpgradeReq MSHR miss cycles
system.l3.ReadExReq_mshr_miss_latency::cpu.data   3270436000                       # number of ReadExReq MSHR miss cycles
system.l3.ReadExReq_mshr_miss_latency::total   3270436000                       # number of ReadExReq MSHR miss cycles
system.l3.ReadSharedReq_mshr_miss_latency::cpu.inst     83403000                       # number of ReadSharedReq MSHR miss cycles
system.l3.ReadSharedReq_mshr_miss_latency::cpu.data    426239500                       # number of ReadSharedReq MSHR miss cycles
system.l3.ReadSharedReq_mshr_miss_latency::total    509642500                       # number of ReadSharedReq MSHR miss cycles
system.l3.demand_mshr_miss_latency::cpu.inst     83403000                       # number of demand (read+write) MSHR miss cycles
system.l3.demand_mshr_miss_latency::cpu.data   3696675500                       # number of demand (read+write) MSHR miss cycles
system.l3.demand_mshr_miss_latency::total   3780078500                       # number of demand (read+write) MSHR miss cycles
system.l3.overall_mshr_miss_latency::cpu.inst     83403000                       # number of overall MSHR miss cycles
system.l3.overall_mshr_miss_latency::cpu.data   3696675500                       # number of overall MSHR miss cycles
system.l3.overall_mshr_miss_latency::total   3780078500                       # number of overall MSHR miss cycles
system.l3.CleanEvict_mshr_miss_rate::writebacks          inf                       # mshr miss rate for CleanEvict accesses
system.l3.CleanEvict_mshr_miss_rate::total          inf                       # mshr miss rate for CleanEvict accesses
system.l3.UpgradeReq_mshr_miss_rate::cpu.data     0.500441                       # mshr miss rate for UpgradeReq accesses
system.l3.UpgradeReq_mshr_miss_rate::total     0.500441                       # mshr miss rate for UpgradeReq accesses
system.l3.ReadExReq_mshr_miss_rate::cpu.data     0.994254                       # mshr miss rate for ReadExReq accesses
system.l3.ReadExReq_mshr_miss_rate::total     0.994254                       # mshr miss rate for ReadExReq accesses
system.l3.ReadSharedReq_mshr_miss_rate::cpu.inst            1                       # mshr miss rate for ReadSharedReq accesses
system.l3.ReadSharedReq_mshr_miss_rate::cpu.data     0.039371                       # mshr miss rate for ReadSharedReq accesses
system.l3.ReadSharedReq_mshr_miss_rate::total     0.058661                       # mshr miss rate for ReadSharedReq accesses
system.l3.demand_mshr_miss_rate::cpu.inst            1                       # mshr miss rate for demand accesses
system.l3.demand_mshr_miss_rate::cpu.data     0.297581                       # mshr miss rate for demand accesses
system.l3.demand_mshr_miss_rate::total       0.307928                       # mshr miss rate for demand accesses
system.l3.overall_mshr_miss_rate::cpu.inst            1                       # mshr miss rate for overall accesses
system.l3.overall_mshr_miss_rate::cpu.data     0.297581                       # mshr miss rate for overall accesses
system.l3.overall_mshr_miss_rate::total      0.307928                       # mshr miss rate for overall accesses
system.l3.UpgradeReq_avg_mshr_miss_latency::cpu.data 258661.585716                       # average UpgradeReq mshr miss latency
system.l3.UpgradeReq_avg_mshr_miss_latency::total 258661.585716                       # average UpgradeReq mshr miss latency
system.l3.ReadExReq_avg_mshr_miss_latency::cpu.data 510845.985629                       # average ReadExReq mshr miss latency
system.l3.ReadExReq_avg_mshr_miss_latency::total 510845.985629                       # average ReadExReq mshr miss latency
system.l3.ReadSharedReq_avg_mshr_miss_latency::cpu.inst 234278.089888                       # average ReadSharedReq mshr miss latency
system.l3.ReadSharedReq_avg_mshr_miss_latency::cpu.data 623157.163743                       # average ReadSharedReq mshr miss latency
system.l3.ReadSharedReq_avg_mshr_miss_latency::total 490040.865385                       # average ReadSharedReq mshr miss latency
system.l3.demand_avg_mshr_miss_latency::cpu.inst 234278.089888                       # average overall mshr miss latency
system.l3.demand_avg_mshr_miss_latency::cpu.data 521687.200113                       # average overall mshr miss latency
system.l3.demand_avg_mshr_miss_latency::total 507938.524590                       # average overall mshr miss latency
system.l3.overall_avg_mshr_miss_latency::cpu.inst 234278.089888                       # average overall mshr miss latency
system.l3.overall_avg_mshr_miss_latency::cpu.data 521687.200113                       # average overall mshr miss latency
system.l3.overall_avg_mshr_miss_latency::total 507938.524590                       # average overall mshr miss latency
system.l3.replacements                           1860                       # number of replacements
system.membus.snoop_filter.tot_requests       1261920                       # Total number of requests made to the snoop filter.
system.membus.snoop_filter.hit_single_requests      1254493                       # Number of requests hitting in the snoop filter with a single holder of the requested data.
system.membus.snoop_filter.hit_multi_requests            0                       # Number of requests hitting in the snoop filter with multiple (>1) holders of the requested data.
system.membus.snoop_filter.tot_snoops               0                       # Total number of snoops made to the snoop filter.
system.membus.snoop_filter.hit_single_snoops            0                       # Number of snoops hitting in the snoop filter with a single holder of the requested data.
system.membus.snoop_filter.hit_multi_snoops            0                       # Number of snoops hitting in the snoop filter with multiple (>1) holders of the requested data.
system.membus.pwrStateResidencyTicks::UNDEFINED 542913440000                       # Cumulative time (in ticks) in various power states
system.membus.trans_dist::ReadResp               1040                       # Transaction distribution
system.membus.trans_dist::WritebackDirty         1256                       # Transaction distribution
system.membus.trans_dist::WriteClean          1260520                       # Transaction distribution
system.membus.trans_dist::CleanEvict               24                       # Transaction distribution
system.membus.trans_dist::UpgradeReq          1253127                       # Transaction distribution
system.membus.trans_dist::ReadExReq              6387                       # Transaction distribution
system.membus.trans_dist::ReadExResp             6387                       # Transaction distribution
system.membus.trans_dist::ReadSharedReq          1040                       # Transaction distribution
system.membus.pkt_count_system.l3.mem_side::system.mem_ctrls.port      2529781                       # Packet count per connected master and slave (bytes)
system.membus.pkt_count_system.l3.mem_side::total      2529781                       # Packet count per connected master and slave (bytes)
system.membus.pkt_count::total                2529781                       # Packet count per connected master and slave (bytes)
system.membus.pkt_size_system.l3.mem_side::system.mem_ctrls.port     81228992                       # Cumulative packet size per connected master and slave (bytes)
system.membus.pkt_size_system.l3.mem_side::total     81228992                       # Cumulative packet size per connected master and slave (bytes)
system.membus.pkt_size::total                81228992                       # Cumulative packet size per connected master and slave (bytes)
system.membus.snoops                                0                       # Total snoops (count)
system.membus.snoopTraffic                          0                       # Total snoop traffic (bytes)
system.membus.snoop_fanout::samples           1260554                       # Request fanout histogram
system.membus.snoop_fanout::mean                    0                       # Request fanout histogram
system.membus.snoop_fanout::stdev                   0                       # Request fanout histogram
system.membus.snoop_fanout::underflows              0      0.00%      0.00% # Request fanout histogram
system.membus.snoop_fanout::0                 1260554    100.00%    100.00% # Request fanout histogram
system.membus.snoop_fanout::1                       0      0.00%    100.00% # Request fanout histogram
system.membus.snoop_fanout::overflows               0      0.00%    100.00% # Request fanout histogram
system.membus.snoop_fanout::min_value               0                       # Request fanout histogram
system.membus.snoop_fanout::max_value               0                       # Request fanout histogram
system.membus.snoop_fanout::total             1260554                       # Request fanout histogram
system.membus.reqLayer2.occupancy          9278381500                       # Layer occupancy (ticks)
system.membus.reqLayer2.utilization               1.7                       # Layer utilization (%)
system.membus.respLayer1.occupancy           37867000                       # Layer occupancy (ticks)
system.membus.respLayer1.utilization              0.0                       # Layer utilization (%)
system.tol2bus.snoop_filter.tot_requests      5096332                       # Total number of requests made to the snoop filter.
system.tol2bus.snoop_filter.hit_single_requests      5050549                       # Number of requests hitting in the snoop filter with a single holder of the requested data.
system.tol2bus.snoop_filter.hit_multi_requests            0                       # Number of requests hitting in the snoop filter with multiple (>1) holders of the requested data.
system.tol2bus.snoop_filter.tot_snoops        3775556                       # Total number of snoops made to the snoop filter.
system.tol2bus.snoop_filter.hit_single_snoops      3775556                       # Number of snoops hitting in the snoop filter with a single holder of the requested data.
system.tol2bus.snoop_filter.hit_multi_snoops            0                       # Number of snoops hitting in the snoop filter with multiple (>1) holders of the requested data.
system.tol2bus.pwrStateResidencyTicks::UNDEFINED 542913440000                       # Cumulative time (in ticks) in various power states
system.tol2bus.trans_dist::ReadResp             39085                       # Transaction distribution
system.tol2bus.trans_dist::WritebackDirty        34169                       # Transaction distribution
system.tol2bus.trans_dist::WritebackClean           46                       # Transaction distribution
system.tol2bus.trans_dist::WriteClean         8789003                       # Transaction distribution
system.tol2bus.trans_dist::CleanEvict           34737                       # Transaction distribution
system.tol2bus.trans_dist::UpgradeReq         5005588                       # Transaction distribution
system.tol2bus.trans_dist::UpgradeResp        5005588                       # Transaction distribution
system.tol2bus.trans_dist::ReadExReq             6698                       # Transaction distribution
system.tol2bus.trans_dist::ReadExResp            6698                       # Transaction distribution
system.tol2bus.trans_dist::ReadCleanReq           356                       # Transaction distribution
system.tol2bus.trans_dist::ReadSharedReq        38729                       # Transaction distribution
system.tol2bus.pkt_count_system.cpu.icache.mem_side::system.l2.cpu_side          758                       # Packet count per connected master and slave (bytes)
system.tol2bus.pkt_count_system.cpu.dcache.mem_side::system.l2.cpu_side     15161146                       # Packet count per connected master and slave (bytes)
system.tol2bus.pkt_count::total              15161904                       # Packet count per connected master and slave (bytes)
system.tol2bus.pkt_size_system.cpu.icache.mem_side::system.l2.cpu_side        25728                       # Cumulative packet size per connected master and slave (bytes)
system.tol2bus.pkt_size_system.cpu.dcache.mem_side::system.l2.cpu_side    324531008                       # Cumulative packet size per connected master and slave (bytes)
system.tol2bus.pkt_size::total              324556736                       # Cumulative packet size per connected master and slave (bytes)
system.tol2bus.snoops                         3798793                       # Total snoops (count)
system.tol2bus.snoopTraffic                 243059328                       # Total snoop traffic (bytes)
system.tol2bus.snoop_fanout::samples          8850164                       # Request fanout histogram
system.tol2bus.snoop_fanout::mean            0.426609                       # Request fanout histogram
system.tol2bus.snoop_fanout::stdev           0.494584                       # Request fanout histogram
system.tol2bus.snoop_fanout::underflows             0      0.00%      0.00% # Request fanout histogram
system.tol2bus.snoop_fanout::0                5074608     57.34%     57.34% # Request fanout histogram
system.tol2bus.snoop_fanout::1                3775556     42.66%    100.00% # Request fanout histogram
system.tol2bus.snoop_fanout::2                      0      0.00%    100.00% # Request fanout histogram
system.tol2bus.snoop_fanout::3                      0      0.00%    100.00% # Request fanout histogram
system.tol2bus.snoop_fanout::4                      0      0.00%    100.00% # Request fanout histogram
system.tol2bus.snoop_fanout::overflows              0      0.00%    100.00% # Request fanout histogram
system.tol2bus.snoop_fanout::min_value              0                       # Request fanout histogram
system.tol2bus.snoop_fanout::max_value              1                       # Request fanout histogram
system.tol2bus.snoop_fanout::total            8850164                       # Request fanout histogram
system.tol2bus.reqLayer0.occupancy        10080682500                       # Layer occupancy (ticks)
system.tol2bus.reqLayer0.utilization              1.9                       # Layer utilization (%)
system.tol2bus.respLayer0.occupancy            534000                       # Layer occupancy (ticks)
system.tol2bus.respLayer0.utilization             0.0                       # Layer utilization (%)
system.tol2bus.respLayer1.occupancy        2570934500                       # Layer occupancy (ticks)
system.tol2bus.respLayer1.utilization             0.5                       # Layer utilization (%)
system.tol3bus.pwrStateResidencyTicks::UNDEFINED 542913440000                       # Cumulative time (in ticks) in various power states
system.tol3bus.trans_dist::ReadResp             17729                       # Transaction distribution
system.tol3bus.trans_dist::WritebackDirty        23000                       # Transaction distribution
system.tol3bus.trans_dist::WriteClean         3774802                       # Transaction distribution
system.tol3bus.trans_dist::CleanEvict             711                       # Transaction distribution
system.tol3bus.trans_dist::UpgradeReq         2504015                       # Transaction distribution
system.tol3bus.trans_dist::UpgradeResp        2504015                       # Transaction distribution
system.tol3bus.trans_dist::ReadExReq             6439                       # Transaction distribution
system.tol3bus.trans_dist::ReadExResp            6439                       # Transaction distribution
system.tol3bus.trans_dist::ReadSharedReq        17729                       # Transaction distribution
system.tol3bus.pkt_count_system.l2.mem_side::system.l3.cpu_side      7592499                       # Packet count per connected master and slave (bytes)
system.tol3bus.pkt_size_system.l2.mem_side::system.l3.cpu_side    163852416                       # Cumulative packet size per connected master and slave (bytes)
system.tol3bus.snoops                         1262380                       # Total snoops (count)
system.tol3bus.snoopTraffic                  80753664                       # Total snoop traffic (bytes)
system.tol3bus.snoop_fanout::samples          3812414                       # Request fanout histogram
system.tol3bus.snoop_fanout::mean            0.331124                       # Request fanout histogram
system.tol3bus.snoop_fanout::stdev           0.470617                       # Request fanout histogram
system.tol3bus.snoop_fanout::underflows             0      0.00%      0.00% # Request fanout histogram
system.tol3bus.snoop_fanout::0                2550034     66.89%     66.89% # Request fanout histogram
system.tol3bus.snoop_fanout::1                1262380     33.11%    100.00% # Request fanout histogram
system.tol3bus.snoop_fanout::overflows              0      0.00%    100.00% # Request fanout histogram
system.tol3bus.snoop_fanout::min_value              0                       # Request fanout histogram
system.tol3bus.snoop_fanout::max_value              1                       # Request fanout histogram
system.tol3bus.snoop_fanout::total            3812414                       # Request fanout histogram
system.tol3bus.reqLayer0.occupancy         5068184000                       # Layer occupancy (ticks)
system.tol3bus.reqLayer0.utilization              0.9                       # Layer utilization (%)
system.tol3bus.respLayer0.occupancy        1288259500                       # Layer occupancy (ticks)
system.tol3bus.respLayer0.utilization             0.2                       # Layer utilization (%)

---------- End Simulation Statistics   ----------
